data/Loads+Theft12.dss
!Actual Loads

New Load.Load_1.2 bus1=2trafo1.1.2.3 model=1 kW=34.632526064461295 kvar=20.08955828968977 Phases=3 Kv=0.41500000000000004

!Theft added

New Load.Load_2.2 bus1=2trafo2.1.2.3 model=1 kW=188.53010425784498 kvar=180.35823315875896 Phases=3 Kv=0.41500000000000004

New Load.Load_3.2 bus1=2trafo3.1.2.3 model=1 kW=69.26505212892239 kvar=40.179116579379404 Phases=3 Kv=0.41500000000000004

New Load.Load_4.2 bus1=2trafo4.1.2.3 model=1 kW=34.632526064461295 kvar=20.08955828968977 Phases=3 Kv=0.41500000000000004

New Load.Load_5.2 bus1=2trafo5.1.2.3 model=1 kW=69.26505212892239 kvar=40.179116579379404 Phases=3 Kv=0.41500000000000004

!Theft added

New Load.Load_6.2 bus1=2trafo6.1.2.3 model=1 kW=169.26505212892239 kvar=140.179116579379404 Phases=3 Kv=0.41500000000000004

New Load.Load_7.2 bus1=2trafo7.1.2.3 model=1 kW=69.26505212892239 kvar=40.179116579379404 Phases=3 Kv=0.41500000000000004

New Load.Load_8.2 bus1=2trafo8.1.2.3 model=1 kW=138.53010425784498 kvar=80.35823315875896 Phases=3 Kv=0.41500000000000004

New Load.Load_9.2 bus1=2trafo9.1.2.3 model=1 kW=138.53010425784498 kvar=80.35823315875896 Phases=3 Kv=0.41500000000000004

!Theft added

New Load.Load_10.2 bus1=2trafo10.1.2.3 model=1 kW=169.26505212892239 kvar=180.179116579379404 Phases=3 Kv=0.41500000000000004

New Load.Load_11.2 bus1=2trafo11.1.2.3 model=1 kW=38.53010425784498 kvar=20.35823315875896 Phases=3 Kv=0.41500000000000004

New Load.Load_12.2 bus1=2trafo12.1.2.3 model=1 kW=138.53010425784498 kvar=80.35823315875896 Phases=3 Kv=0.41500000000000004

New Load.Load_13.2 bus1=2trafo13.1.2.3 model=1 kW=138.53010425784498 kvar=80.35823315875896 Phases=3 Kv=0.41500000000000004

!Theft added

New Load.Load_14.2 bus1=2trafo14.1.2.3 model=1 kW=188.53010425784498 kvar=180.35823315875896 Phases=3 Kv=0.41500000000000004

New Load.Load_15.2 bus1=2trafo15.1.2.3 model=1 kW=34.632526064461295 kvar=20.08955828968977 Phases=3 Kv=0.41500000000000004

New Load.Load_16.2 bus1=2trafo16.1.2.3 model=1 kW=138.53010425784498 kvar=80.35823315875896 Phases=3 Kv=0.41500000000000004
 
New Load.Load_17.2 bus1=2trafo17.1.2.3 model=1 kW=69.26505212892239 kvar=40.179116579379404 Phases=3 Kv=0.41500000000000004

!Theft added

New Load.Load_18.2 bus1=2trafo18.1.2.3 model=1 kW=134.632526064461295 kvar=120.08955828968977 Phases=3 Kv=0.41500000000000004

New Load.Load_19.2 bus1=2trafo19.1.2.3 model=1 kW=17.31626303223061 kvar=10.044779144844862 Phases=3 Kv=0.41500000000000004

New Load.Load_20.2 bus1=2trafo20.1.2.3 model=1 kW=69.26505212892239 kvar=40.179116579379404 Phases=3 Kv=0.41500000000000004

New Load.Load_21.2 bus1=2trafo21.1.2.3 model=1 kW=17.31626303223061 kvar=10.044779144844862 Phases=3 Kv=0.41500000000000004

!Theft added

New Load.Load_22.2 bus1=2trafo22.1.2.3 model=1 kW=134.632526064461295 kvar=120.08955828968977 Phases=3 Kv=0.41500000000000004

New Load.Load_23.2 bus1=2trafo23.1.2.3 model=1 kW=34.632526064461295 kvar=20.08955828968977 Phases=3 Kv=0.41500000000000004

New Load.Load_26.2 bus1=2trafo26.1.2.3 model=1 kW=69.26505212892239 kvar=40.179116579379404 Phases=3 Kv=0.41500000000000004

New Load.Load_27.2 bus1=2trafo27.1.2.3 model=1 kW=17.31626303223061 kvar=10.044779144844862 Phases=3 Kv=0.41500000000000004

!Theft added

New Load.Load_28.2 bus1=2trafo28.1.2.3 model=1 kW=188.53010425784498 kvar=180.35823315875896 Phases=3 Kv=0.41500000000000004

New Load.Load_29.2 bus1=2trafo29.1.2.3 model=1 kW=138.53010425784498 kvar=80.35823315875896 Phases=3 Kv=0.41500000000000004

New Load.Load_30.2 bus1=2trafo30.1.2.3 model=1 kW=138.53010425784498 kvar=80.35823315875896 Phases=3 Kv=0.41500000000000004

New Load.Load_31.2 bus1=2trafo31.1.2.3 model=1 kW=277.06020851568906 kvar=160.71646631751742 Phases=3 Kv=0.41500000000000004

New Load.Load_32.2 bus1=2trafo32.1.2.3 model=1 kW=17.31626303223061 kvar=10.044779144844862 Phases=3 Kv=0.41500000000000004

!Theft added

New Load.Load_100 bus1=2trafo100.1.2.3 model=1 kW=100.0 kvar=40.0 Phases=3 Kv=0.41500000000000004

New Load.Load_33.2 bus1=2trafo33.1.2.3 model=1 kW=138.53010425784498 kvar=80.35823315875896 Phases=3 Kv=0.41500000000000004

New Load.Load_34.2 bus1=2trafo34.1.2.3 model=1 kW=128.53010425784498 kvar=80.35823315875896 Phases=3 Kv=0.41500000000000004

New Load.Load_35.2 bus1=2trafo35.1.2.3 model=1 kW=138.53010425784498 kvar=80.35823315875896 Phases=3 Kv=0.41500000000000004

!Theft added

New Load.Load_36.2 bus1=2trafo36.1.2.3 model=1 kW=169.26505212892239 kvar=140.179116579379404 Phases=3 Kv=0.41500000000000004

New Load.Load_37.2 bus1=2trafo37.1.2.3 model=1 kW=138.53010425784498 kvar=80.35823315875896 Phases=3 Kv=0.41500000000000004

New Load.Load_38.2 bus1=2trafo38.1.2.3 model=1 kW=69.26505212892239 kvar=40.179116579379404 Phases=3 Kv=0.41500000000000004

New Load.Load_39.2 bus1=2trafo39.1.2.3 model=1 kW=138.53010425784498 kvar=80.35823315875896 Phases=3 Kv=0.41500000000000004

New Load.Load_40.2 bus1=2trafo40.1.2.3 model=1 kW=138.53010425784498 kvar=80.35823315875896 Phases=3 Kv=0.41500000000000004

!Theft added

New Load.Load_41.2 bus1=2trafo41.1.2.3 model=1 kW=188.53010425784498 kvar=180.35823315875896 Phases=3 Kv=0.41500000000000004

New Load.Load_42.2 bus1=2trafo42.1.2.3 model=1 kW=69.26505212892239 kvar=40.179116579379404 Phases=3 Kv=0.41500000000000004

New Load.Load_43.2 bus1=2trafo43.1.2.3 model=1 kW=138.53010425784498 kvar=80.35823315875896 Phases=3 Kv=0.41500000000000004

New Load.Load_44.2 bus1=2trafo44.1.2.3 model=1 kW=138.53010425784498 kvar=80.35823315875896 Phases=3 Kv=0.41500000000000004

New Load.Load_45.2 bus1=2trafo45.1.2.3 model=1 kW=138.53010425784498 kvar=80.35823315875896 Phases=3 Kv=0.41500000000000004

New Load.Load_46.2 bus1=2trafo46.1.2.3 model=1 kW=38.53010425784498 kvar=20.35823315875896 Phases=3 Kv=0.41500000000000004

!Theft added

New Load.Load_103 bus1=2trafo46.1.2.3 model=1 kW=100.0 kvar=40.0 Phases=3 Kv=0.41500000000000004

New Load.Load_47.2 bus1=2trafo47.1.2.3 model=1 kW=138.53010425784498 kvar=80.35823315875896 Phases=3 Kv=0.41500000000000004

New Load.Load_48.2 bus1=2trafo48.1.2.3 model=1 kW=69.26505212892239 kvar=40.179116579379404 Phases=3 Kv=0.41500000000000004

New Load.Load_49.2 bus1=2trafo49.1.2.3 model=1 kW=138.53010425784498 kvar=80.35823315875896 Phases=3 Kv=0.41500000000000004

New Load.Load_50.2 bus1=2trafo50.1.2.3 model=1 kW=138.53010425784498 kvar=80.35823315875896 Phases=3 Kv=0.41500000000000004

New Load.Load_51.2 bus1=2trafo51.1.2.3 model=1 kW=17.31626303223061 kvar=10.044779144844862 Phases=3 Kv=0.41500000000000004

!Theft added

New Load.Load_52.2 bus1=2trafo52.1.2.3 model=1 kW=198.53010425784498 kvar=180.35823315875896 Phases=3 Kv=0.41500000000000004

New Load.Load_53_2.2 bus1=2trafo53.1.2.3 model=1 kW=138.53010425784498 kvar=80.35823315875896 Phases=3 Kv=0.41500000000000004

New Load.Load_54.2 bus1=2trafo54.1.2.3 model=1 kW=138.53010425784498 kvar=80.35823315875896 Phases=3 Kv=0.41500000000000004

New Load.Load_55.2 bus1=2trafo55.1.2.3 model=1 kW=138.53010425784498 kvar=80.35823315875896 Phases=3 Kv=0.41500000000000004

New Load.Load_56.2 bus1=2trafo56.1.2.3 model=1 kW=138.53010425784498 kvar=80.35823315875896 Phases=3 Kv=0.41500000000000004

New Load.Load_57.2 bus1=2trafo57.1.2.3 model=1 kW=138.53010425784498 kvar=80.35823315875896 Phases=3 Kv=0.41500000000000004

New Load.Load_58.2 bus1=2trafo58.1.2.3 model=1 kW=138.53010425784498 kvar=80.35823315875896 Phases=3 Kv=0.41500000000000004

